Version 4
SHEET 1 1412 876
WIRE 720 0 560 0
WIRE 928 0 784 0
WIRE 192 144 192 96
WIRE 512 176 416 176
WIRE 560 176 560 0
WIRE 560 176 512 176
WIRE 672 176 560 176
WIRE 928 176 928 0
WIRE 928 176 832 176
WIRE 992 176 928 176
WIRE 1136 176 992 176
WIRE 512 208 512 176
WIRE 992 224 992 176
WIRE 192 256 192 224
WIRE 1136 304 1136 176
WIRE 992 320 992 288
WIRE 960 400 912 400
WIRE 912 432 912 400
WIRE 32 448 0 448
WIRE 224 448 112 448
WIRE 960 448 960 400
WIRE 992 448 960 448
WIRE 1136 448 1136 304
WIRE 1136 448 1072 448
WIRE -144 464 -176 464
WIRE 992 480 992 448
WIRE 1136 480 1136 448
WIRE -176 496 -176 464
WIRE -144 496 -144 464
WIRE -128 496 -144 496
WIRE 0 496 0 448
WIRE 0 496 -48 496
WIRE 144 496 144 384
WIRE 992 496 992 480
WIRE 1072 496 1072 448
WIRE 1072 496 1024 496
WIRE 0 512 0 496
WIRE 112 512 0 512
WIRE 912 512 880 512
WIRE 960 512 912 512
WIRE 224 528 224 448
WIRE 224 528 176 528
WIRE 256 528 224 528
WIRE 336 528 256 528
WIRE 624 528 416 528
WIRE 752 528 752 272
WIRE 752 528 624 528
WIRE 1072 528 1024 528
WIRE 16 544 -128 544
WIRE 112 544 16 544
WIRE -128 576 -128 544
WIRE 1072 576 1072 528
WIRE 1136 576 1136 560
WIRE 1136 576 1072 576
WIRE 144 592 144 560
WIRE 256 608 256 528
WIRE 1136 624 1136 576
WIRE -128 688 -128 656
WIRE 1136 832 1136 704
FLAG -128 688 0
FLAG 1136 832 0
FLAG 144 592 0
FLAG 256 672 0
FLAG 512 272 0
FLAG -176 496 0
FLAG 992 320 0
FLAG 144 384 Vpp
FLAG 416 176 Vpp
FLAG 992 544 Vout
FLAG 912 432 0
FLAG 1136 304 Vout
FLAG 912 512 VSenseOut
FLAG 624 528 VAdj
FLAG 16 544 VCtrl
FLAG 192 256 0
FLAG 192 96 Vpp
SYMBOL voltage -128 560 R0
SYMATTR InstName V2
SYMATTR Value 5
SYMBOL res 1120 464 R0
SYMATTR InstName R1
SYMATTR Value .01
SYMBOL res 432 512 R90
WINDOW 0 0 56 VBottom 2
WINDOW 3 32 56 VTop 2
SYMATTR InstName R2
SYMATTR Value 0
SYMBOL polcap 496 208 R0
WINDOW 3 24 56 Left 2
SYMATTR Value 2200µ
SYMATTR InstName C1
SYMATTR Description Capacitor
SYMATTR Type cap
SYMATTR SpiceLine Rser=32m Lser=0 mfg="   ---" pn="   ---" type="   ---"
SYMBOL polcap 976 224 R0
WINDOW 3 24 56 Left 2
SYMATTR Value 10µ
SYMATTR InstName C2
SYMATTR Description Capacitor
SYMATTR Type cap
SYMATTR SpiceLine Rser=50m Lser=0 mfg="KEMET" pn="T521X106M063ATE050" type="Tantalum"
SYMBOL cap 240 608 R0
SYMATTR InstName C3
SYMATTR Value 10µf
SYMBOL res -32 480 R90
WINDOW 0 0 56 VBottom 2
WINDOW 3 32 56 VTop 2
SYMATTR InstName R3
SYMATTR Value 10k
SYMBOL res 128 432 R90
WINDOW 0 0 56 VBottom 2
WINDOW 3 32 56 VTop 2
SYMATTR InstName R4
SYMATTR Value 15k
SYMBOL diode 784 -16 R90
WINDOW 0 0 32 VBottom 2
WINDOW 3 32 32 VTop 2
SYMATTR InstName D1
SYMATTR Value 1N4148
SYMBOL res 1120 608 R0
SYMATTR InstName R5
SYMATTR Value 5
SYMBOL Opamps/UniversalOpamp2 992 512 R180
SYMATTR InstName U3
SYMBOL voltage 192 128 R0
SYMATTR InstName V1
SYMATTR Value 20
SYMBOL PowerProducts/LM317 752 208 R0
SYMATTR InstName U2
SYMBOL Opamps/UniversalOpamp2 144 528 R0
SYMATTR InstName U1
TEXT -96 840 Left 2 !#.tran 1\n.dc V2 0 5 .05
