Version 4
SHEET 1 1468 1080
WIRE 992 -176 832 -176
WIRE 1200 -176 1056 -176
WIRE -192 -96 -272 -96
WIRE -160 -96 -192 -96
WIRE -16 -96 -96 -96
WIRE -368 -64 -464 -64
WIRE -16 -48 -16 -96
WIRE 64 -48 -16 -48
WIRE 784 -32 688 -32
WIRE 832 -32 832 -176
WIRE 832 -32 784 -32
WIRE 896 -32 832 -32
WIRE 1200 -32 1200 -176
WIRE 1200 -32 1152 -32
WIRE 1264 -32 1200 -32
WIRE 1408 -32 1264 -32
WIRE 1264 -16 1264 -32
WIRE -160 0 -208 0
WIRE -16 0 -16 -48
WIRE -16 0 -96 0
WIRE 784 0 784 -32
WIRE -464 16 -464 -64
WIRE -368 16 -368 -64
WIRE -272 16 -272 -96
WIRE 1264 16 1264 -16
WIRE 1264 80 1264 48
WIRE -192 96 -192 -96
WIRE -160 96 -192 96
WIRE -16 96 -96 96
WIRE 1408 96 1408 -32
WIRE 480 128 448 128
WIRE 672 128 560 128
WIRE -16 144 -16 96
WIRE 0 144 -16 144
WIRE 64 144 64 32
WIRE 64 144 0 144
WIRE 304 144 272 144
WIRE -464 160 -464 96
WIRE -416 160 -464 160
WIRE -368 160 -368 96
WIRE -368 160 -416 160
WIRE 1264 160 1232 160
WIRE 1408 160 1408 96
WIRE 1408 160 1344 160
WIRE 0 176 0 144
WIRE 272 176 272 144
WIRE 304 176 304 144
WIRE 320 176 304 176
WIRE 448 176 448 128
WIRE 448 176 400 176
WIRE 592 176 592 64
WIRE -416 192 -416 160
WIRE -272 192 -272 96
WIRE -208 192 -208 0
WIRE -208 192 -272 192
WIRE -160 192 -208 192
WIRE -16 192 -16 144
WIRE -16 192 -96 192
WIRE 448 192 448 176
WIRE 560 192 448 192
WIRE 1264 192 1264 160
WIRE 1408 192 1408 160
WIRE 672 208 672 128
WIRE 672 208 624 208
WIRE 704 208 672 208
WIRE 784 208 704 208
WIRE 896 208 864 208
WIRE 1024 208 1024 64
WIRE 1024 208 896 208
WIRE 1264 208 1264 192
WIRE 1344 208 1344 160
WIRE 1344 208 1296 208
WIRE 464 224 320 224
WIRE 560 224 464 224
WIRE 1184 224 1152 224
WIRE 1232 224 1184 224
WIRE 1344 240 1296 240
WIRE 320 256 320 224
WIRE 592 272 592 240
WIRE 704 288 704 208
WIRE 1344 288 1344 240
WIRE 1408 288 1408 272
WIRE 1408 288 1344 288
WIRE 1408 336 1408 288
WIRE 320 368 320 336
WIRE 1408 448 1408 416
FLAG 320 368 0
FLAG 1408 448 0
FLAG 592 272 0
FLAG 704 352 0
FLAG 784 64 0
FLAG 272 176 0
FLAG 1264 80 0
FLAG 592 64 Vout
FLAG 1264 256 Vout
FLAG 1232 160 0
FLAG 1408 96 Vout
FLAG 1184 224 VSenseOut
FLAG 896 208 VAdjin
FLAG 464 224 VCtrl
FLAG 64 144 VMinus
FLAG -416 192 0
FLAG 688 -32 VPlus
FLAG 0 176 0
SYMBOL voltage 320 240 R0
SYMATTR InstName V2
SYMATTR Value 5
SYMBOL PowerProducts/LT317A 1024 -32 R0
SYMATTR InstName U2
SYMBOL res 1392 176 R0
SYMATTR InstName R1
SYMATTR Value .01
SYMBOL res 880 192 R90
WINDOW 0 0 56 VBottom 2
WINDOW 3 32 56 VTop 2
SYMATTR InstName R2
SYMATTR Value 0
SYMBOL polcap 768 0 R0
WINDOW 3 37 47 Left 2
SYMATTR Value 2200µ
SYMATTR InstName C1
SYMATTR Description Capacitor
SYMATTR Type cap
SYMATTR SpiceLine Rser=32m Lser=0 mfg="   ---" pn="   ---" type="   ---"
SYMBOL polcap 1248 -16 R0
WINDOW 3 24 56 Left 2
SYMATTR Value 10µ
SYMATTR InstName C2
SYMATTR Description Capacitor
SYMATTR Type cap
SYMATTR SpiceLine Rser=50m Lser=0 mfg="KEMET" pn="T521X106M063ATE050" type="Tantalum"
SYMBOL cap 688 288 R0
SYMATTR InstName C3
SYMATTR Value 10µf
SYMBOL res 416 160 R90
WINDOW 0 0 56 VBottom 2
WINDOW 3 32 56 VTop 2
SYMATTR InstName R3
SYMATTR Value 10k
SYMBOL res 576 112 R90
WINDOW 0 0 56 VBottom 2
WINDOW 3 32 56 VTop 2
SYMATTR InstName R4
SYMATTR Value 15k
SYMBOL diode 1056 -192 R90
WINDOW 0 0 32 VBottom 2
WINDOW 3 32 32 VTop 2
SYMATTR InstName D1
SYMATTR Value 1N4148
SYMBOL res 1392 320 R0
SYMATTR InstName R5
SYMATTR Value 5
SYMBOL Opamps/UniversalOpamp2 1264 224 R180
SYMATTR InstName U3
SYMBOL voltage -464 0 R0
WINDOW 3 -66 -89 Left 2
SYMATTR Value SINE(0 120 60)
SYMATTR InstName V1
SYMATTR SpiceLine Rser=.1
SYMBOL ind2 -384 0 R0
SYMATTR InstName L1
SYMATTR Value 40
SYMBOL ind2 -256 0 M0
SYMATTR InstName L2
SYMATTR Value 20
SYMBOL diode -160 -80 R270
WINDOW 0 32 32 VTop 2
WINDOW 3 0 32 VBottom 2
SYMATTR InstName D2
SYMBOL diode -160 16 R270
WINDOW 0 32 32 VTop 2
WINDOW 3 0 32 VBottom 2
SYMATTR InstName D3
SYMBOL diode -96 112 M270
WINDOW 0 32 32 VTop 2
WINDOW 3 0 32 VBottom 2
SYMATTR InstName D4
SYMBOL diode -96 176 R90
WINDOW 0 0 32 VBottom 2
WINDOW 3 32 32 VTop 2
SYMATTR InstName D5
SYMBOL Opamps/LM324 592 208 R0
SYMATTR InstName U1
SYMBOL res 48 -64 R0
SYMATTR InstName R6
SYMATTR Value 10
TEXT 248 -104 Left 2 !.tran 1\n#.dc V2 0 5 .05
TEXT -408 -136 Left 2 !K1 L1 L2 0.9999
